
include omnetpp.ini

[Config Base]
network = BasicTopology
seed-set = ${repetition}

**.mac.controlBitrate = 1000Mbps
**.eth[*].mac.duplexMode = true
**.eth[*].queueType = "DropTailQueue"



[Config Test]
sim-time-limit=10h
extends = Base


**.tracker.numTcpApps = 1
**.tracker.tcpApp[0].typename="TCPEchoApp"
**.tracker.tcpApp[0].localPort = 8082
**.swarmManager.remainingSeeders = 0.3
*.peer[*].typename = "Peer"
*.peer[*].bitTorrentApp.bitTorrentClient.processingTimeHistogram = "../simulations/hist_55bin.dat"